Version 4
SHEET 1 880 680
WIRE -112 -112 -240 -112
WIRE -80 -112 -112 -112
WIRE 32 -96 -16 -96
WIRE -80 -80 -208 -80
WIRE -1200 -32 -1200 -96
WIRE -912 -32 -912 -96
WIRE -656 -32 -656 -96
WIRE -112 -16 -112 -112
WIRE -80 -16 -112 -16
WIRE 32 -16 32 -96
WIRE 160 -16 32 -16
WIRE -208 0 -208 -80
WIRE -208 0 -240 0
WIRE 160 0 -16 0
WIRE 288 0 224 0
WIRE 400 0 352 0
WIRE -80 16 -112 16
WIRE 160 16 32 16
WIRE -1200 80 -1200 48
WIRE -912 80 -912 48
WIRE -656 80 -656 48
WIRE -208 96 -208 0
WIRE -80 96 -208 96
WIRE 32 112 32 16
WIRE 32 112 -16 112
WIRE -112 128 -112 16
WIRE -112 128 -240 128
WIRE -80 128 -112 128
FLAG -240 -112 A
IOPIN -240 -112 In
FLAG -240 0 B
IOPIN -240 0 In
FLAG -240 128 S
IOPIN -240 128 In
FLAG 400 0 Y
IOPIN 400 0 Out
FLAG -912 -96 A
IOPIN -912 -96 Out
FLAG -656 -96 B
IOPIN -656 -96 Out
FLAG -1200 -96 S
IOPIN -1200 -96 Out
FLAG -912 80 0
FLAG -656 80 0
FLAG -1200 80 0
SYMBOL DigitalLogic\\NOR_2 -48 -96 R0
SYMATTR InstName U1
SYMBOL DigitalLogic\\NOR_2 -48 0 R0
SYMATTR InstName U2
SYMBOL DigitalLogic\\NOR_2 -48 112 R0
SYMATTR InstName U3
SYMBOL DigitalLogic\\NOR_3 192 0 R0
SYMATTR InstName U4
SYMBOL DigitalLogic\\INV_1 304 0 R0
SYMATTR InstName U5
SYMBOL voltage -912 -48 R0
WINDOW 3 -172 -124 Left 2
WINDOW 123 0 0 Left 0
WINDOW 39 24 124 Left 2
SYMATTR Value PULSE(0 5 20m 1n 1n 20m 40m)
SYMATTR InstName V1
SYMBOL voltage -656 -48 R0
WINDOW 3 -147 185 Left 2
WINDOW 123 0 0 Left 0
WINDOW 39 0 0 Left 0
SYMATTR Value PULSE(0 5 10m 1n 1n 10m 20m)
SYMATTR InstName V2
SYMBOL voltage -1200 -48 R0
WINDOW 3 -171 180 Left 2
WINDOW 123 0 0 Left 0
WINDOW 39 0 0 Left 0
SYMATTR Value PULSE(0 5 40m 1n 1n 40m 80m)
SYMATTR InstName V3
TEXT -1372 380 Left 2 !.tran 80m
