Version 4
SHEET 1 880 880
WIRE -224 -32 -224 -48
WIRE -192 -32 -224 -32
WIRE -96 -32 -96 -48
WIRE -64 -32 -96 -32
WIRE 32 -32 32 -48
WIRE 64 -32 32 -32
WIRE -192 -16 -192 -32
WIRE -64 -16 -64 -32
WIRE 64 -16 64 -32
WIRE -192 64 -192 48
WIRE 176 64 -192 64
WIRE -64 80 -64 48
WIRE 176 80 -64 80
WIRE 64 96 64 48
WIRE 176 96 64 96
WIRE 288 96 240 96
WIRE 176 112 160 112
WIRE -192 160 -192 64
WIRE 176 160 -192 160
WIRE -64 176 -64 80
WIRE 176 176 -64 176
WIRE 32 192 32 -32
WIRE 176 192 32 192
WIRE 272 192 240 192
WIRE 176 208 160 208
WIRE 288 208 288 96
WIRE 336 208 288 208
WIRE 272 224 272 192
WIRE 336 224 272 224
WIRE 336 240 272 240
WIRE 432 240 400 240
WIRE -192 256 -192 160
WIRE 176 256 -192 256
WIRE 336 256 288 256
WIRE -96 272 -96 -32
WIRE 176 272 -96 272
WIRE 64 288 64 96
WIRE 176 288 64 288
WIRE 272 288 272 240
WIRE 272 288 240 288
WIRE 176 304 160 304
WIRE -192 352 -192 256
WIRE 176 352 -192 352
WIRE -96 368 -96 272
WIRE 176 368 -96 368
WIRE 32 384 32 192
WIRE 176 384 32 384
WIRE 288 384 288 256
WIRE 288 384 240 384
WIRE 176 400 160 400
WIRE 432 416 432 240
WIRE 480 416 432 416
WIRE 576 432 544 432
WIRE -224 448 -224 -32
WIRE 176 448 -224 448
WIRE 480 448 432 448
WIRE -64 464 -64 176
WIRE 176 464 -64 464
WIRE 64 480 64 288
WIRE 176 480 64 480
WIRE 288 480 240 480
WIRE 176 496 160 496
WIRE -224 544 -224 448
WIRE 176 544 -224 544
WIRE -64 560 -64 464
WIRE 176 560 -64 560
WIRE 32 576 32 384
WIRE 176 576 32 576
WIRE 272 576 240 576
WIRE 176 592 160 592
WIRE 288 592 288 480
WIRE 352 592 288 592
WIRE 272 608 272 576
WIRE 352 608 272 608
WIRE 352 624 272 624
WIRE 432 624 432 448
WIRE 432 624 416 624
WIRE -224 640 -224 544
WIRE 176 640 -224 640
WIRE 352 640 288 640
WIRE -96 656 -96 368
WIRE 176 656 -96 656
WIRE 64 672 64 480
WIRE 176 672 64 672
WIRE 272 672 272 624
WIRE 272 672 240 672
WIRE 176 688 160 688
WIRE -224 736 -224 640
WIRE 176 736 -224 736
WIRE -96 752 -96 656
WIRE 176 752 -96 752
WIRE 32 768 32 576
WIRE 176 768 32 768
WIRE 288 768 288 640
WIRE 288 768 240 768
WIRE 176 784 160 784
WIRE -224 848 -224 736
WIRE -192 848 -192 352
WIRE -96 848 -96 752
WIRE -64 848 -64 560
WIRE 32 848 32 768
WIRE 64 848 64 672
FLAG -224 -48 A
IOPIN -224 -48 In
FLAG -96 -48 B
IOPIN -96 -48 In
FLAG 32 -48 C
IOPIN 32 -48 In
FLAG 160 112 S1
IOPIN 160 112 In
FLAG 160 208 S2
IOPIN 160 208 In
FLAG 160 304 S3
IOPIN 160 304 In
FLAG 160 400 S4
IOPIN 160 400 In
FLAG 160 496 S5
IOPIN 160 496 In
FLAG 160 592 S6
IOPIN 160 592 In
FLAG 160 688 S7
IOPIN 160 688 In
FLAG 160 784 S8
IOPIN 160 784 In
FLAG 576 432 OUT
IOPIN 576 432 Out
FLAG 112 -592 0
FLAG 288 -592 0
FLAG 448 -592 0
FLAG 448 -672 C
IOPIN 448 -672 Out
FLAG 288 -672 B
IOPIN 288 -672 Out
FLAG 112 -672 A
IOPIN 112 -672 Out
FLAG -208 -192 0
FLAG -80 -192 0
FLAG 48 -192 0
FLAG 176 -192 0
FLAG -208 -384 0
FLAG -80 -384 0
FLAG 48 -384 0
FLAG 176 -384 0
FLAG -208 -272 S1
IOPIN -208 -272 Out
FLAG -80 -272 S2
IOPIN -80 -272 Out
FLAG 48 -272 S3
IOPIN 48 -272 Out
FLAG 176 -272 S4
IOPIN 176 -272 Out
FLAG -208 -464 S5
IOPIN -208 -464 Out
FLAG -80 -464 S6
IOPIN -80 -464 Out
FLAG 48 -464 S7
IOPIN 48 -464 Out
FLAG 176 -464 S8
IOPIN 176 -464 Out
SYMBOL DigitalLogic\\INV_1 -192 0 R90
SYMATTR InstName U1
SYMBOL DigitalLogic\\INV_1 -64 0 R90
SYMATTR InstName U2
SYMBOL DigitalLogic\\INV_1 64 0 R90
SYMATTR InstName U3
SYMBOL DigitalLogic\\AND_4 208 96 R0
SYMATTR InstName U4
SYMBOL DigitalLogic\\AND_4 208 192 R0
SYMATTR InstName U5
SYMBOL DigitalLogic\\AND_4 208 288 R0
SYMATTR InstName U6
SYMBOL DigitalLogic\\AND_4 208 384 R0
SYMATTR InstName U7
SYMBOL DigitalLogic\\AND_4 208 480 R0
SYMATTR InstName U8
SYMBOL DigitalLogic\\AND_4 208 576 R0
SYMATTR InstName U9
SYMBOL DigitalLogic\\AND_4 208 672 R0
SYMATTR InstName U10
SYMBOL DigitalLogic\\AND_4 208 768 R0
SYMATTR InstName U11
SYMBOL DigitalLogic\\OR_4 368 240 R0
SYMATTR InstName U12
SYMBOL DigitalLogic\\OR_4 384 624 R0
SYMATTR InstName U13
SYMBOL DigitalLogic\\OR_2 512 432 R0
SYMATTR InstName U14
SYMBOL voltage 448 -688 R0
WINDOW 123 0 0 Left 0
WINDOW 39 0 0 Left 0
WINDOW 3 -317 -120 Left 2
SYMATTR Value PULSE(0 5 10m 1n 1n 10m 20m)
SYMATTR InstName V1
SYMBOL voltage 288 -688 R0
WINDOW 123 0 0 Left 0
WINDOW 39 0 0 Left 0
WINDOW 3 -350 -82 Left 2
SYMATTR Value PULSE(0 5 20m 1n 1n 20m 40m)
SYMATTR InstName V2
SYMBOL voltage 112 -688 R0
WINDOW 123 0 0 Left 0
WINDOW 39 0 0 Left 0
WINDOW 3 -354 -47 Left 2
SYMATTR Value PULSE(0 5 40m 1n 1n 40m 80m)
SYMATTR InstName V3
SYMBOL voltage -208 -288 R0
WINDOW 0 -32 56 VBottom 2
WINDOW 3 32 56 VTop 2
WINDOW 123 0 0 Left 0
WINDOW 39 0 0 Left 0
SYMATTR InstName V4
SYMATTR Value 5
SYMBOL voltage -80 -288 R0
WINDOW 0 -32 56 VBottom 2
WINDOW 3 32 56 VTop 2
WINDOW 123 0 0 Left 0
WINDOW 39 0 0 Left 0
SYMATTR InstName V5
SYMATTR Value 0
SYMBOL voltage 48 -288 R0
WINDOW 0 -32 56 VBottom 2
WINDOW 3 32 56 VTop 2
WINDOW 123 0 0 Left 0
WINDOW 39 0 0 Left 0
SYMATTR InstName V6
SYMATTR Value 0
SYMBOL voltage 176 -288 R0
WINDOW 0 -32 56 VBottom 2
WINDOW 3 32 56 VTop 2
WINDOW 123 0 0 Left 0
WINDOW 39 0 0 Left 0
SYMATTR InstName V7
SYMATTR Value 0
SYMBOL voltage -208 -480 R0
WINDOW 0 -32 56 VBottom 2
WINDOW 3 32 56 VTop 2
WINDOW 123 0 0 Left 0
WINDOW 39 0 0 Left 0
SYMATTR InstName V9
SYMATTR Value 0
SYMBOL voltage -80 -480 R0
WINDOW 0 -32 56 VBottom 2
WINDOW 3 32 56 VTop 2
WINDOW 123 0 0 Left 0
WINDOW 39 0 0 Left 0
SYMATTR InstName V10
SYMATTR Value 0
SYMBOL voltage 48 -480 R0
WINDOW 0 -32 56 VBottom 2
WINDOW 3 32 56 VTop 2
WINDOW 123 0 0 Left 0
WINDOW 39 0 0 Left 0
SYMATTR InstName V11
SYMATTR Value 0
SYMBOL voltage 176 -480 R0
WINDOW 0 -32 56 VBottom 2
WINDOW 3 32 56 VTop 2
WINDOW 123 0 0 Left 0
WINDOW 39 0 0 Left 0
SYMATTR InstName V12
SYMATTR Value 0
TEXT -1080 864 Left 2 !.tran 80m
